
[General]
network = src.FatTree16
sim-time-limit = 1s

