
[General]
network = src.RingDragonfly16
sim-time-limit = 20s

